// Generated for: spectre
// Generated on: May  6 14:17:16 2023
// Design library name: devices
// Design cell name: comparator_tb
// Design view name: schematic
simulator lang=spectre
global 0 vdd!
