// Generated for: spectre
// Generated on: May  3 21:20:48 2023
// Design library name: devices
// Design cell name: nor3_pulse_tb
// Design view name: config
simulator lang=spectre
global 0 vdd!
