// Generated for: spectre
// Generated on: May  3 21:15:23 2023
// Design library name: devices
// Design cell name: nand2_pulse_tb
// Design view name: config
simulator lang=spectre
global 0 vdd!
